
     RDKit          3D

 52 54  0  0  0  0  0  0  0  0999 V2000
   -1.2562   -5.6543    0.4720 C   0  0  0  0  0  0  0  0  0  0  0  0
   -0.5851   -4.4831    0.9190 O   0  0  0  0  0  0  0  0  0  0  0  0
   -1.4212   -3.3257    0.9214 C   0  0  0  0  0  0  0  0  0  0  0  0
   -1.6123   -2.7447   -0.4804 C   0  0  0  0  0  0  0  0  0  0  0  0
   -2.2731   -1.4821   -0.4279 O   0  0  0  0  0  0  0  0  0  0  0  0
   -1.5257   -0.3383   -0.3168 C   0  0  0  0  0  0  0  0  0  0  0  0
   -2.2286    0.8710   -0.4334 C   0  0  0  0  0  0  0  0  0  0  0  0
   -1.5364    2.0826   -0.3305 C   0  0  0  0  0  0  0  0  0  0  0  0
   -0.1668    2.1321   -0.1044 C   0  0  0  0  0  0  0  0  0  0  0  0
    0.5419    0.9331    0.0325 C   0  0  0  0  0  0  0  0  0  0  0  0
   -0.1500   -0.3006   -0.0848 C   0  0  0  0  0  0  0  0  0  0  0  0
    1.9257    1.0681    0.2729 C   0  0  0  0  0  0  0  0  0  0  0  0
    2.5202    2.2723    0.3399 N   0  0  0  0  0  0  0  0  0  0  0  0
    1.7376    3.3422    0.1866 C   0  0  0  0  0  0  0  0  0  0  0  0
    0.4176    3.3299   -0.0246 N   0  0  0  0  0  0  0  0  0  0  0  0
    2.7048   -0.1057    0.4644 N   0  0  0  0  0  0  0  0  0  0  0  0
    4.1122   -0.2418    0.4511 C   0  0  0  0  0  0  0  0  0  0  0  0
    4.6935   -1.3342    1.1155 C   0  0  0  0  0  0  0  0  0  0  0  0
    6.0734   -1.5521    1.0793 C   0  0  0  0  0  0  0  0  0  0  0  0
    6.8940   -0.6921    0.3535 C   0  0  0  0  0  0  0  0  0  0  0  0
    6.3318    0.3760   -0.3448 C   0  0  0  0  0  0  0  0  0  0  0  0
    4.9490    0.5891   -0.3049 C   0  0  0  0  0  0  0  0  0  0  0  0
    7.1689    1.2477   -1.1115 C   0  0  0  0  0  0  0  0  0  0  0  0
    7.8704    1.9796   -1.7551 C   0  0  0  0  0  0  0  0  0  0  0  0
   -3.5797    0.7623   -0.6492 O   0  0  0  0  0  0  0  0  0  0  0  0
   -4.3336    1.9644   -0.7933 C   0  0  0  0  0  0  0  0  0  0  0  0
   -5.7933    1.5900   -1.0486 C   0  0  0  0  0  0  0  0  0  0  0  0
   -6.6174    2.7389   -1.2477 O   0  0  0  0  0  0  0  0  0  0  0  0
   -7.0380    3.3385   -0.0295 C   0  0  0  0  0  0  0  0  0  0  0  0
   -1.5439   -5.5619   -0.5786 H   0  0  0  0  0  0  0  0  0  0  0  0
   -0.5677   -6.4986    0.5659 H   0  0  0  0  0  0  0  0  0  0  0  0
   -2.1366   -5.8542    1.0902 H   0  0  0  0  0  0  0  0  0  0  0  0
   -0.9365   -2.5872    1.5683 H   0  0  0  0  0  0  0  0  0  0  0  0
   -2.3880   -3.5435    1.3918 H   0  0  0  0  0  0  0  0  0  0  0  0
   -0.6806   -2.7155   -1.0577 H   0  0  0  0  0  0  0  0  0  0  0  0
   -2.2695   -3.4113   -1.0506 H   0  0  0  0  0  0  0  0  0  0  0  0
   -2.0505    3.0341   -0.4265 H   0  0  0  0  0  0  0  0  0  0  0  0
    0.4204   -1.2192    0.0038 H   0  0  0  0  0  0  0  0  0  0  0  0
    2.2180    4.3131    0.2419 H   0  0  0  0  0  0  0  0  0  0  0  0
    2.2895   -0.6578    1.2078 H   0  0  0  0  0  0  0  0  0  0  0  0
    4.0739   -2.0307    1.6752 H   0  0  0  0  0  0  0  0  0  0  0  0
    6.5052   -2.3957    1.6112 H   0  0  0  0  0  0  0  0  0  0  0  0
    7.9668   -0.8653    0.3256 H   0  0  0  0  0  0  0  0  0  0  0  0
    4.5275    1.4104   -0.8783 H   0  0  0  0  0  0  0  0  0  0  0  0
    8.4902    2.6303   -2.3265 H   0  0  0  0  0  0  0  0  0  0  0  0
   -3.9651    2.5563   -1.6401 H   0  0  0  0  0  0  0  0  0  0  0  0
   -4.2598    2.5667    0.1190 H   0  0  0  0  0  0  0  0  0  0  0  0
   -5.8488    0.9873   -1.9625 H   0  0  0  0  0  0  0  0  0  0  0  0
   -6.1890    0.9567   -0.2449 H   0  0  0  0  0  0  0  0  0  0  0  0
   -7.6060    2.6243    0.5743 H   0  0  0  0  0  0  0  0  0  0  0  0
   -6.1831    3.7164    0.5373 H   0  0  0  0  0  0  0  0  0  0  0  0
   -7.6900    4.1823   -0.2717 H   0  0  0  0  0  0  0  0  0  0  0  0
  1  2  1  0
  2  3  1  0
  3  4  1  0
  4  5  1  0
  5  6  1  0
  6  7  1  0
  7  8  2  0
  8  9  1  0
  9 10  1  0
 10 11  1  0
 10 12  2  0
 12 13  1  0
 13 14  2  0
 14 15  1  0
 12 16  1  0
 16 17  1  0
 17 18  2  0
 18 19  1  0
 19 20  2  0
 20 21  1  0
 21 22  2  0
 21 23  1  0
 23 24  3  0
  7 25  1  0
 25 26  1  0
 26 27  1  0
 27 28  1  0
 28 29  1  0
 11  6  2  0
 15  9  2  0
 22 17  1  0
  1 30  1  0
  1 31  1  0
  1 32  1  0
  3 33  1  0
  3 34  1  0
  4 35  1  0
  4 36  1  0
  8 37  1  0
 11 38  1  0
 14 39  1  0
 16 40  1  0
 18 41  1  0
 19 42  1  0
 20 43  1  0
 22 44  1  0
 24 45  1  0
 26 46  1  0
 26 47  1  0
 27 48  1  0
 27 49  1  0
 29 50  1  0
 29 51  1  0
 29 52  1  0
M  END
$$$$
